opendss_networks/LV32_100bus/lines.dss
new line.L_36 lineCode=uglv_240al_xlpe/nyl/pvc_ug_4w_bundled bus1=B2295 bus2=B1413 length=0.118555714044 units=km phases=4
new line.L_172 lineCode=uglv_240al_xlpe/nyl/pvc_ug_4w_bundled bus1=B1616 bus2=B173 length=0.146306148265 units=km phases=4
new line.L_185 lineCode=ugsc_16cu_xlpe/nyl/pvc_ug_4w_bundled bus1=B2538 bus2=B281 length=0.0341353514723 units=km phases=4
new line.L_213 lineCode=ugsc_16cu_xlpe/nyl/pvc_ug_4w_bundled bus1=B1197 bus2=B734 length=0.00599979499749 units=km phases=4
new line.L_265 lineCode=ugsc_16cu_xlpe/nyl/pvc_ug_4w_bundled bus1=B387 bus2=B3035 length=0.187556922775 units=km phases=4
new line.L_277 lineCode=ugsc_16cu_xlpe/nyl/pvc_ug_4w_bundled bus1=B633 bus2=B128 length=0.0470566953261 units=km phases=4
new line.L_303 lineCode=uglv_240al_xlpe/nyl/pvc_ug_4w_bundled bus1=B2329 bus2=B1840 length=0.0216471314824 units=km phases=4
new line.L_394 lineCode=ugsc_16cu_xlpe/nyl/pvc_ug_4w_bundled bus1=B3321 bus2=B281 length=0.0575861598756 units=km phases=4
new line.L_433 lineCode=ugsc_16cu_xlpe/nyl/pvc_ug_4w_bundled bus1=B2862 bus2=B103 length=0.00704490207803 units=km phases=4
new line.L_445 lineCode=ugsc_16cu_xlpe/nyl/pvc_ug_4w_bundled bus1=B676 bus2=B967 length=0.00755853288285 units=km phases=4
new line.L_567 lineCode=ugsc_16cu_xlpe/nyl/pvc_ug_4w_bundled bus1=B281 bus2=B1893 length=0.00551633927992 units=km phases=4
new line.L_622 lineCode=ugsc_16cu_xlpe/nyl/pvc_ug_4w_bundled bus1=B2045 bus2=B3078 length=0.0138039407567 units=km phases=4
new line.L_641 lineCode=ugsc_16cu_xlpe/nyl/pvc_ug_4w_bundled bus1=B2781 bus2=B3085 length=0.00640796601368 units=km phases=4
new line.L_767 lineCode=uglv_240al_xlpe/nyl/pvc_ug_4w_bundled bus1=B852 bus2=B2043 length=0.0267232527752 units=km phases=4
new line.L_770 lineCode=ugsc_16cu_xlpe/nyl/pvc_ug_4w_bundled bus1=B2295 bus2=B2170 length=0.00564001255558 units=km phases=4
new line.L_889 lineCode=ugsc_16cu_xlpe/nyl/pvc_ug_4w_bundled bus1=B2978 bus2=B452 length=0.00407792243399 units=km phases=4
new line.L_964 lineCode=ugsc_16cu_xlpe/nyl/pvc_ug_4w_bundled bus1=B1554 bus2=B3085 length=0.0204446784369 units=km phases=4
new line.L_993 lineCode=ugsc_16cu_xlpe/nyl/pvc_ug_4w_bundled bus1=B2352 bus2=B2386 length=0.00627576253562 units=km phases=4
new line.L_1072 lineCode=uglv_240al_xlpe/nyl/pvc_ug_4w_bundled bus1=B1639 bus2=B852 length=0.0450373065791 units=km phases=4
new line.L_1074 lineCode=ughv_400al_triplex_ug_4w_bundled bus1=B983 bus2=B1234 length=0.000800000000000 units=km phases=4
new line.L_1091 lineCode=ughv_400al_triplex_ug_4w_bundled bus1=B3366 bus2=B277 length=0.000244629175463 units=km phases=4
new line.L_1135 lineCode=ugsc_16cu_xlpe/nyl/pvc_ug_4w_bundled bus1=B1669 bus2=B1263 length=0.0186406782382 units=km phases=4
new line.L_1191 lineCode=ugsc_16cu_xlpe/nyl/pvc_ug_4w_bundled bus1=B128 bus2=B2862 length=0.0409335140238 units=km phases=4
new line.L_1199 lineCode=ugsc_16cu_xlpe/nyl/pvc_ug_4w_bundled bus1=B2408 bus2=B738 length=0.0350010591877 units=km phases=4
new line.L_1375 lineCode=ugsc_16cu_xlpe/nyl/pvc_ug_4w_bundled bus1=B2168 bus2=B3078 length=0.0398716577326 units=km phases=4
new line.L_1696 lineCode=uglv_240al_xlpe/nyl/pvc_ug_4w_bundled bus1=B1840 bus2=B1272 length=0.0578234468514 units=km phases=4
new line.L_1769 lineCode=ugsc_16cu_xlpe/nyl/pvc_ug_4w_bundled bus1=B1234 bus2=B537 length=0.0191480516029 units=km phases=4
new line.L_1770 lineCode=ugsc_16cu_xlpe/nyl/pvc_ug_4w_bundled bus1=B738 bus2=B1316 length=0.00767059649875 units=km phases=4
new line.L_1995 lineCode=ugsc_16cu_xlpe/nyl/pvc_ug_4w_bundled bus1=B2702 bus2=B1615 length=0.0105109925168 units=km phases=4
new line.L_2060 lineCode=uglv_240al_xlpe/nyl/pvc_ug_4w_bundled bus1=B173 bus2=B1615 length=0.0480993573590 units=km phases=4
new line.L_2086 lineCode=ugsc_16cu_xlpe/nyl/pvc_ug_4w_bundled bus1=B2725 bus2=B3078 length=0.0130450308401 units=km phases=4
new line.L_2123 lineCode=ugsc_16cu_xlpe/nyl/pvc_ug_4w_bundled bus1=B1882 bus2=B633 length=0.0470732825746 units=km phases=4
new line.L_2133 lineCode=ugsc_16cu_xlpe/nyl/pvc_ug_4w_bundled bus1=B3078 bus2=B958 length=0.0129003918277 units=km phases=4
new line.L_2143 lineCode=ughv_400al_triplex_ug_4w_bundled bus1=B277 bus2=B369 length=0.000320879432527 units=km phases=4
new line.L_2197 lineCode=ugsc_16cu_xlpe/nyl/pvc_ug_4w_bundled bus1=B452 bus2=B1780 length=0.0125706743530 units=km phases=4
new line.L_2262 lineCode=ugsc_16cu_xlpe/nyl/pvc_ug_4w_bundled bus1=B2164 bus2=B3041 length=0.407325638952 units=km phases=4
new line.L_2352 lineCode=ugsc_16cu_xlpe/nyl/pvc_ug_4w_bundled bus1=B1234 bus2=B1485 length=0.00696645396682 units=km phases=4
new line.L_2386 lineCode=uglv_240al_xlpe/nyl/pvc_ug_4w_bundled bus1=B2069 bus2=B1272 length=0.174954242971 units=km phases=4
new line.L_2401 lineCode=ugsc_16cu_xlpe/nyl/pvc_ug_4w_bundled bus1=B3193 bus2=B1639 length=0.0240926048458 units=km phases=4
new line.L_2406 lineCode=uglv_240al_xlpe/nyl/pvc_ug_4w_bundled bus1=B3078 bus2=B1745 length=0.0479316143337 units=km phases=4
new line.L_2420 lineCode=ugsc_16cu_xlpe/nyl/pvc_ug_4w_bundled bus1=B738 bus2=B982 length=0.0457216572775 units=km phases=4
new line.L_2434 lineCode=ugsc_16cu_xlpe/nyl/pvc_ug_4w_bundled bus1=B2762 bus2=B633 length=0.00849382630123 units=km phases=4
new line.L_2485 lineCode=uglv_240al_xlpe/nyl/pvc_ug_4w_bundled bus1=B2352 bus2=B1272 length=0.0665697303128 units=km phases=4
new line.L_2519 lineCode=ughv_400al_triplex_ug_4w_bundled bus1=B3344 bus2=B803 length=7.47735676854e-05 units=km phases=4
new line.L_2666 lineCode=ugsc_16cu_xlpe/nyl/pvc_ug_4w_bundled bus1=B280 bus2=B852 length=0.00772217605407 units=km phases=4
new line.L_2688 lineCode=ugsc_16cu_xlpe/nyl/pvc_ug_4w_bundled bus1=B734 bus2=B852 length=0.0132281315516 units=km phases=4
new line.L_2909 lineCode=ugsc_16cu_xlpe/nyl/pvc_ug_4w_bundled bus1=B2586 bus2=B1615 length=0.00753870342395 units=km phases=4
new line.L_2954 lineCode=ugsc_16cu_xlpe/nyl/pvc_ug_4w_bundled bus1=B2409 bus2=B852 length=0.00742653259428 units=km phases=4
new line.L_2959 lineCode=ugsc_16cu_xlpe/nyl/pvc_ug_4w_bundled bus1=B1071 bus2=B2043 length=0.00748386386780 units=km phases=4
new line.L_2988 lineCode=ugsc_16cu_xlpe/nyl/pvc_ug_4w_bundled bus1=B2023 bus2=B2043 length=0.00779254815906 units=km phases=4
new line.L_3036 lineCode=ugsc_16cu_xlpe/nyl/pvc_ug_4w_bundled bus1=B982 bus2=B1046 length=0.00727448321852 units=km phases=4
new line.L_3053 lineCode=uglv_240al_xlpe/nyl/pvc_ug_4w_bundled bus1=B967 bus2=B1639 length=0.0493468049697 units=km phases=4
new line.L_3086 lineCode=ugsc_16cu_xlpe/nyl/pvc_ug_4w_bundled bus1=B994 bus2=B1882 length=0.00813234261450 units=km phases=4
new line.L_3096 lineCode=ugsc_16cu_xlpe/nyl/pvc_ug_4w_bundled bus1=B2043 bus2=B1929 length=0.0294292998505 units=km phases=4
new line.L_3114 lineCode=uglv_240al_xlpe/nyl/pvc_ug_4w_bundled bus1=B1907 bus2=B1616 length=0.141417703017 units=km phases=4
new line.L_3157 lineCode=ughv_400al_triplex_ug_4w_bundled bus1=B3041 bus2=B570 length=0.000245770494581 units=km phases=4
new line.L_3259 lineCode=ugsc_16cu_xlpe/nyl/pvc_ug_4w_bundled bus1=B985 bus2=B1745 length=0.0383362561943 units=km phases=4
new line.L_3272 lineCode=ugsc_16cu_xlpe/nyl/pvc_ug_4w_bundled bus1=B1615 bus2=B917 length=0.0148984351770 units=km phases=4
new line.L_3293 lineCode=ugsc_16cu_xlpe/nyl/pvc_ug_4w_bundled bus1=B219 bus2=B2295 length=0.0336380743258 units=km phases=4
new line.L_3389 lineCode=ugsc_16cu_xlpe/nyl/pvc_ug_4w_bundled bus1=B3085 bus2=B1370 length=0.00534158283793 units=km phases=4
new line.L_3435 lineCode=ugsc_16cu_xlpe/nyl/pvc_ug_4w_bundled bus1=B3085 bus2=B2043 length=0.0160981540189 units=km phases=4
new line.L_3561 lineCode=uglv_240al_xlpe/nyl/pvc_ug_4w_bundled bus1=B1745 bus2=B1116 length=0.0186507452023 units=km phases=4
new line.L_3650 lineCode=uglv_240al_xlpe/nyl/pvc_ug_4w_bundled bus1=B1840 bus2=B1669 length=0.0920634628939 units=km phases=4
new line.L_3673 lineCode=uglv_240al_xlpe/nyl/pvc_ug_4w_bundled bus1=B281 bus2=B2295 length=0.0622692618850 units=km phases=4
new line.L_3691 lineCode=ugsc_16cu_xlpe/nyl/pvc_ug_4w_bundled bus1=B592 bus2=B734 length=0.0224228041520 units=km phases=4
new line.L_3798 lineCode=ugsc_16cu_xlpe/nyl/pvc_ug_4w_bundled bus1=B633 bus2=B1669 length=0.0235772183988 units=km phases=4
new line.L_3829 lineCode=uglv_240al_xlpe/nyl/pvc_ug_4w_bundled bus1=B2352 bus2=B1234 length=0.0672615424786 units=km phases=4
new line.L_3873 lineCode=ugsc_16cu_xlpe/nyl/pvc_ug_4w_bundled bus1=B1669 bus2=B1645 length=0.0128045785651 units=km phases=4
new line.L_3874 lineCode=ugsc_16cu_xlpe/nyl/pvc_ug_4w_bundled bus1=B1686 bus2=B734 length=0.0163449374612 units=km phases=4
new line.L_3934 lineCode=uglv_240al_xlpe/nyl/pvc_ug_4w_bundled bus1=B1615 bus2=B967 length=0.0270055221377 units=km phases=4
new line.L_3937 lineCode=uglv_240al_xlpe/nyl/pvc_ug_4w_bundled bus1=B1639 bus2=B2528 length=0.0231369227458 units=km phases=4
new line.L_3954 lineCode=ugsc_16cu_xlpe/nyl/pvc_ug_4w_bundled bus1=B591 bus2=B1639 length=0.00818337338452 units=km phases=4
new line.L_3995 lineCode=ugsc_16cu_xlpe/nyl/pvc_ug_4w_bundled bus1=B2711 bus2=B2408 length=0.00768381003418 units=km phases=4
new line.L_4034 lineCode=uglv_240al_xlpe/nyl/pvc_ug_4w_bundled bus1=B1615 bus2=B452 length=0.0206145136367 units=km phases=4
new line.L_4047 lineCode=uglv_240al_xlpe/nyl/pvc_ug_4w_bundled bus1=B2408 bus2=B1745 length=0.0832520130306 units=km phases=4
new line.L_4092 lineCode=uglv_240al_xlpe/nyl/pvc_ug_4w_bundled bus1=B3078 bus2=B1674 length=0.0358226852648 units=km phases=4
new line.L_4105 lineCode=ugsc_16cu_xlpe/nyl/pvc_ug_4w_bundled bus1=B456 bus2=B967 length=0.00758717019881 units=km phases=4
new line.L_4115 lineCode=ughv_400al_triplex_ug_4w_bundled bus1=B2427 bus2=B2803 length=7.47735676854e-05 units=km phases=4
new line.L_4132 lineCode=ugsc_16cu_xlpe/nyl/pvc_ug_4w_bundled bus1=B1933 bus2=B3078 length=0.0255636201565 units=km phases=4
new line.L_4178 lineCode=ughv_400al_triplex_ug_4w_bundled bus1=B2471 bus2=B1413 length=0.000800000000000 units=km phases=4
new line.L_4196 lineCode=ugsc_16cu_xlpe/nyl/pvc_ug_4w_bundled bus1=B1687 bus2=B2295 length=0.0338166296999 units=km phases=4
new line.L_4207 lineCode=uglv_240al_xlpe/nyl/pvc_ug_4w_bundled bus1=B1669 bus2=B2408 length=0.0481522898438 units=km phases=4
new line.L_4245 lineCode=ughv_400al_triplex_ug_4w_bundled bus1=B277 bus2=B3099 length=0.000354697784977 units=km phases=4
new line.L_4389 lineCode=ugsc_16cu_xlpe/nyl/pvc_ug_4w_bundled bus1=B1272 bus2=B1935 length=0.00714133252457 units=km phases=4
new line.L_4430 lineCode=ugsc_16cu_xlpe/nyl/pvc_ug_4w_bundled bus1=B128 bus2=B1912 length=0.00727212165769 units=km phases=4
new line.L_4434 lineCode=uglv_240al_xlpe/nyl/pvc_ug_4w_bundled bus1=B1116 bus2=B2260 length=0.0209708838507 units=km phases=4
new line.L_4451 lineCode=uglv_240al_xlpe/nyl/pvc_ug_4w_bundled bus1=B3078 bus2=B281 length=0.126440625878 units=km phases=4
new line.L_4518 lineCode=ugsc_16cu_xlpe/nyl/pvc_ug_4w_bundled bus1=B1840 bus2=B1363 length=0.0176085198813 units=km phases=4
new line.L_4625 lineCode=ughv_400al_triplex_ug_4w_bundled bus1=B277 bus2=B3035 length=0.000562833062165 units=km phases=4
new line.L_4645 lineCode=ughv_400al_triplex_ug_4w_bundled bus1=B277 bus2=B1562 length=0.000206301915236 units=km phases=4
new line.L_4663 lineCode=ughv_400al_triplex_ug_4w_bundled bus1=B3041 bus2=B14 length=0.000255748683551 units=km phases=4
new line.L_4692 lineCode=ugsc_16cu_xlpe/nyl/pvc_ug_4w_bundled bus1=B1728 bus2=B1639 length=0.0862263181442 units=km phases=4
